Version 4
SHEET 1 2564 724
WIRE 2560 -192 1968 -192
WIRE 2224 -128 2192 -128
WIRE 2320 -128 2288 -128
WIRE 1632 -48 240 -48
WIRE 1888 -48 1664 -48
WIRE 400 -32 288 -32
WIRE 2080 -32 2032 -32
WIRE 2192 -32 2192 -128
WIRE 2192 -32 2160 -32
WIRE 2224 -32 2192 -32
WIRE 2320 -32 2320 -128
WIRE 2320 -32 2304 -32
WIRE 2032 -16 2032 -32
WIRE 624 32 592 32
WIRE 720 32 704 32
WIRE 1216 48 1216 16
WIRE 1248 48 1248 16
WIRE -112 64 -272 64
WIRE 64 64 -32 64
WIRE 352 64 352 48
WIRE 2240 64 2240 48
WIRE 288 80 288 -32
WIRE 320 80 288 80
WIRE 1184 80 1168 80
WIRE 1472 80 1472 64
WIRE 2192 80 2192 -32
WIRE 2208 80 2192 80
WIRE 64 96 64 64
WIRE 112 96 64 96
WIRE 400 96 400 -32
WIRE 400 96 384 96
WIRE 432 96 400 96
WIRE 464 96 432 96
WIRE 560 96 544 96
WIRE 848 96 848 80
WIRE 1440 96 1424 96
WIRE 2320 96 2320 -32
WIRE 2320 96 2272 96
WIRE 2432 96 2320 96
WIRE -272 112 -272 64
WIRE 112 112 112 96
WIRE 320 112 112 112
WIRE 816 112 768 112
WIRE 1552 112 1504 112
WIRE 1696 112 1552 112
WIRE 1808 112 1776 112
WIRE 2208 112 1808 112
WIRE 64 128 64 96
WIRE 640 128 640 112
WIRE 928 128 880 128
WIRE 1040 128 1008 128
WIRE 1184 128 1040 128
WIRE 1376 128 1312 128
WIRE 1440 128 1376 128
WIRE 352 144 352 128
WIRE 560 144 560 96
WIRE 592 144 592 32
WIRE 592 144 560 144
WIRE 608 144 592 144
WIRE 720 144 720 32
WIRE 816 144 720 144
WIRE 1552 144 1552 112
WIRE 2240 144 2240 128
WIRE 352 160 352 144
WIRE 720 160 720 144
WIRE 720 160 672 160
WIRE 1040 160 1040 128
WIRE 1424 160 1424 96
WIRE 2240 160 2240 144
WIRE 2432 160 2432 96
WIRE 608 176 576 176
WIRE 1472 176 1472 144
WIRE 848 192 848 160
WIRE 1168 192 1168 80
WIRE 1216 192 1216 160
WIRE 1216 192 1168 192
WIRE 1248 192 1248 160
WIRE 1248 192 1216 192
WIRE 1808 192 1808 112
WIRE 640 208 640 192
WIRE 1216 208 1216 192
WIRE -272 224 -272 192
WIRE 640 224 640 208
WIRE 64 240 64 208
WIRE 144 240 64 240
WIRE 448 240 144 240
WIRE 464 240 448 240
WIRE 576 240 576 176
WIRE 576 240 544 240
WIRE 1040 256 1040 224
WIRE 576 272 576 240
WIRE 144 288 144 240
WIRE 2432 288 2432 240
WIRE 768 304 768 112
WIRE 1376 304 1376 128
WIRE 1376 304 768 304
WIRE 1808 304 1808 256
WIRE 1968 336 1968 -192
WIRE 2560 336 2560 -192
WIRE 2560 336 1968 336
WIRE 576 384 576 352
WIRE 240 416 240 -48
WIRE 1632 416 1632 -48
WIRE 1632 416 240 416
WIRE 1664 416 1664 -48
WIRE 1888 416 1888 -48
WIRE 1888 416 1664 416
WIRE -240 496 -240 464
WIRE -160 496 -160 464
WIRE -16 512 -16 480
WIRE -240 608 -240 576
WIRE -160 608 -160 576
WIRE -16 608 -16 592
FLAG 64 64 AIN
FLAG 64 240 AIP_GND
FLAG 576 384 0
FLAG -160 608 0
FLAG -160 464 VA
FLAG 640 112 VA
FLAG -240 608 0
FLAG -240 464 VA-
FLAG 640 208 VA-
FLAG 720 160 Vout
FLAG 448 240 V2
FLAG 432 96 V1
FLAG -272 224 0
FLAG 352 48 VA
FLAG 352 144 VA-
FLAG -16 608 0
FLAG -16 480 Clk
FLAG 848 80 VA
FLAG 1040 256 0
FLAG 848 192 VA-
FLAG 1216 208 0
FLAG 1216 16 VA
FLAG 1248 16 Clk
FLAG 144 288 0
FLAG 1808 304 0
FLAG 1472 64 VA
FLAG 1472 176 VA-
FLAG 1424 160 0
FLAG 2432 288 0
FLAG 2240 48 VA
FLAG 2240 144 VA-
FLAG 2032 -16 0
FLAG 1552 144 OUT_Si8946A
FLAG 2432 96 IN_Ard
SYMBOL res 48 112 R0
SYMATTR InstName Rmess
SYMATTR Value 12.5
SYMBOL current -32 64 R90
WINDOW 0 -32 40 VBottom 2
WINDOW 3 -89 44 VTop 2
WINDOW 123 0 0 Left 0
WINDOW 39 0 0 Left 0
SYMATTR InstName I1
SYMATTR Value SINE(2.5m 2.5m {fclk/1000})
SYMBOL OpAmps\\UniversalOpAmp1 640 160 R0
SYMATTR InstName U1
SYMBOL res 560 80 R90
WINDOW 0 0 56 VBottom 2
WINDOW 3 32 56 VTop 2
SYMATTR InstName R1
SYMATTR Value 1k
SYMBOL res 560 224 R90
WINDOW 0 0 56 VBottom 2
WINDOW 3 32 56 VTop 2
SYMATTR InstName R1_
SYMATTR Value 1k
SYMBOL res 720 16 R90
WINDOW 0 0 56 VBottom 2
WINDOW 3 32 56 VTop 2
SYMATTR InstName R2_
SYMATTR Value 40k
SYMBOL res 592 368 R180
WINDOW 0 36 76 Left 2
WINDOW 3 36 40 Left 2
SYMATTR InstName R2
SYMATTR Value 40k
SYMBOL voltage -160 480 R0
WINDOW 123 0 0 Left 0
WINDOW 39 0 0 Left 0
SYMATTR InstName VA
SYMATTR Value 3.3
SYMBOL voltage -240 592 R180
WINDOW 0 24 96 Left 2
WINDOW 3 24 16 Left 2
WINDOW 123 0 0 Left 0
WINDOW 39 0 0 Left 0
SYMATTR InstName VA-
SYMATTR Value 3.3
SYMBOL voltage -272 96 R0
WINDOW 123 0 0 Left 0
WINDOW 39 0 0 Left 0
SYMATTR InstName V1
SYMATTR Value 3.3V
SYMBOL OpAmps\\UniversalOpAmp1 352 96 R0
SYMATTR InstName U2
SYMBOL voltage -16 496 R0
WINDOW 123 0 0 Left 0
WINDOW 39 0 0 Left 0
SYMATTR InstName Clock
SYMATTR Value PULSE(0 3.3 0 0 0 {1/(2*fclk)} {1/fclk})
SYMBOL OpAmps\\UniversalOpAmp1 848 128 R0
SYMATTR InstName U3
SYMATTR Value2 Avol=1 GBW=100Meg Vos=0
SYMBOL res 912 144 R270
WINDOW 0 32 56 VTop 2
WINDOW 3 0 56 VBottom 2
SYMATTR InstName R4
SYMATTR Value 10
SYMBOL cap 1024 160 R0
SYMATTR InstName C1
SYMATTR Value 10n
SYMBOL Comparators\\AD8561 1216 32 R0
SYMATTR InstName U5
SYMBOL res 1792 96 R90
WINDOW 0 0 56 VBottom 2
WINDOW 3 32 56 VTop 2
SYMATTR InstName R6
SYMATTR Value 1k
SYMBOL OpAmps\\UniversalOpAmp1 1472 112 R0
SYMATTR InstName U6
SYMATTR Value2 Avol=1.27 GBW=100Meg Vos=0
SYMBOL cap 1792 192 R0
SYMATTR InstName C2
SYMATTR Value 5n
SYMBOL res 2416 144 R0
SYMATTR InstName R5
SYMATTR Value 10Meg
SYMBOL OpAmps\\UniversalOpAmp1 2240 96 R0
SYMATTR InstName U4
SYMBOL res 2320 -48 R90
WINDOW 0 0 56 VBottom 2
WINDOW 3 32 56 VTop 2
SYMATTR InstName R7
SYMATTR Value 270
SYMBOL res 2176 -48 R90
WINDOW 0 0 56 VBottom 2
WINDOW 3 32 56 VTop 2
SYMATTR InstName R8
SYMATTR Value 1k
SYMBOL cap 2288 -144 R90
WINDOW 0 0 32 VBottom 2
WINDOW 3 32 32 VTop 2
SYMATTR InstName C3
SYMATTR Value 1.85n
TEXT -152 -296 Left 2 ;Die Spannung an Rmess kann am Kleinsten -62.5mV sein.
TEXT -152 -264 Left 2 ;62.5/5=12.5 Ohm
TEXT -304 672 Left 2 !.tran 0 {7000/fclk} {5000/fclk} {1/(100*fclk)}
TEXT -304 704 Left 2 !.param fclk 30Meg
TEXT 752 8 Left 2 ;Comparator
TEXT 944 8 Left 2 ;Integrator
TEXT 280 -80 Left 2 ;Si8946A
TEXT 1672 -72 Left 2 ;Pre-Filter
TEXT 1976 -224 Left 2 ;Pro-Filter and Amplifier
