Version 4
SHEET 1 880 680
WIRE 448 -208 -144 -208
WIRE -96 -144 -96 -160
WIRE 112 -112 80 -112
WIRE 208 -112 176 -112
WIRE -96 -48 -96 -64
WIRE -32 -48 -96 -48
WIRE -224 -32 -448 -32
WIRE -96 -32 -96 -48
WIRE -32 -16 -32 -48
WIRE 80 -16 80 -112
WIRE 80 -16 48 -16
WIRE 112 -16 80 -16
WIRE 208 -16 208 -112
WIRE 208 -16 192 -16
WIRE -96 80 -96 48
WIRE 128 80 128 64
WIRE 80 96 80 -16
WIRE 96 96 80 96
WIRE 208 112 208 -16
WIRE 208 112 160 112
WIRE 320 112 208 112
WIRE -416 128 -736 128
WIRE -304 128 -336 128
WIRE -192 128 -304 128
WIRE 96 128 -192 128
WIRE -736 144 -736 128
WIRE 128 160 128 144
WIRE 128 176 128 160
WIRE 320 176 320 112
WIRE -304 208 -304 128
WIRE -736 256 -736 224
WIRE 320 304 320 256
WIRE -1232 320 -1232 288
WIRE -1152 320 -1152 288
WIRE -304 320 -304 272
WIRE -144 352 -144 -208
WIRE 448 352 448 -208
WIRE 448 352 -144 352
WIRE -1232 432 -1232 400
WIRE -1152 432 -1152 400
WIRE -448 432 -448 -32
WIRE -224 432 -224 -32
WIRE -224 432 -448 432
FLAG -304 320 0
FLAG 320 304 0
FLAG 128 64 VA
FLAG 128 160 VA-
FLAG -96 80 0
FLAG 320 112 IN_Ard
FLAG -736 256 0
FLAG -1152 432 0
FLAG -1152 288 VA
FLAG -1232 432 0
FLAG -1232 288 VA-
FLAG -96 -160 VA-
FLAG -192 128 nach_pro_f
SYMBOL res -320 112 R90
WINDOW 0 0 56 VBottom 2
WINDOW 3 32 56 VTop 2
SYMATTR InstName R1
SYMATTR Value 1k
SYMBOL cap -320 208 R0
SYMATTR InstName C1
SYMATTR Value 10n
SYMBOL res 304 160 R0
SYMATTR InstName R2
SYMATTR Value 10Meg
SYMBOL OpAmps\\UniversalOpAmp1 128 112 R0
SYMATTR InstName U1
SYMBOL res 208 -32 R90
WINDOW 0 0 56 VBottom 2
WINDOW 3 32 56 VTop 2
SYMATTR InstName R3
SYMATTR Value 5
SYMBOL res 64 -32 R90
WINDOW 0 0 56 VBottom 2
WINDOW 3 32 56 VTop 2
SYMATTR InstName R4
SYMATTR Value 1k
SYMBOL cap 176 -128 R90
WINDOW 0 0 32 VBottom 2
WINDOW 3 32 32 VTop 2
SYMATTR InstName C2
SYMATTR Value 7n
SYMBOL voltage -736 128 R0
WINDOW 3 -216 98 Left 2
WINDOW 123 0 0 Left 0
WINDOW 39 0 0 Left 0
SYMATTR InstName V1
SYMATTR Value PULSE(0 3.3 0 0 0 {t_on_10} {1/fclk})
SYMBOL voltage -1152 304 R0
WINDOW 123 0 0 Left 0
WINDOW 39 0 0 Left 0
SYMATTR InstName VA1
SYMATTR Value 3.3
SYMBOL voltage -1232 416 R180
WINDOW 0 24 96 Left 2
WINDOW 3 24 16 Left 2
WINDOW 123 0 0 Left 0
WINDOW 39 0 0 Left 0
SYMATTR InstName VA2
SYMATTR Value 3.3
SYMBOL res -112 -48 R0
SYMATTR InstName R6
SYMATTR Value 1k
SYMBOL res -112 -160 R0
SYMATTR InstName R7
SYMATTR Value 1k
TEXT -440 -56 Left 2 ;Pre-Filter
TEXT -136 -264 Left 2 ;Pro-Filter and Amplifier
TEXT -1312 -96 Left 2 ;.tran 0 {10/fclk} 0 {1/(fclk*10)}
TEXT -1312 -136 Left 2 !.param t_on_max=1/fclk-10e-9 t_on_50=t_on_max*0.5 t_on_10=t_on_max*0.1
TEXT -1312 -168 Left 2 !.param fclk=10Meg
TEXT -1320 -56 Left 2 !.tran 0 {5100/fclk} {5000/fclk} {1/(100*fclk)}
