Version 4
SHEET 1 880 680
WIRE 416 32 384 32
WIRE 512 32 496 32
WIRE -32 96 -64 96
WIRE 64 96 48 96
WIRE 256 96 112 96
WIRE 352 96 336 96
WIRE 64 112 64 96
WIRE 112 112 112 96
WIRE 112 112 64 112
WIRE 64 128 64 112
WIRE 432 128 432 112
WIRE -64 144 -64 96
WIRE 352 144 352 96
WIRE 384 144 384 32
WIRE 384 144 352 144
WIRE 400 144 384 144
WIRE 512 160 512 32
WIRE 512 160 464 160
WIRE 400 176 368 176
WIRE 432 208 432 192
WIRE 432 224 432 208
WIRE 64 240 64 208
WIRE 192 240 64 240
WIRE 256 240 192 240
WIRE 368 240 368 176
WIRE 368 240 336 240
WIRE 192 256 192 240
WIRE 368 272 368 240
WIRE 368 384 368 352
WIRE -240 496 -240 464
WIRE -160 496 -160 464
WIRE -240 608 -240 576
WIRE -160 608 -160 576
FLAG -64 144 0
FLAG 64 96 AIN
FLAG 64 240 AIP
FLAG 368 384 0
FLAG -160 608 0
FLAG -160 464 VA
FLAG 432 112 VA
FLAG -240 608 0
FLAG -240 464 VA-
FLAG 432 208 VA-
FLAG 192 256 0
SYMBOL res 48 112 R0
SYMATTR InstName Rmess
SYMATTR Value 12.5
SYMBOL current 48 96 R90
WINDOW 0 -32 40 VBottom 2
WINDOW 3 32 40 VTop 2
WINDOW 123 0 0 Left 0
WINDOW 39 0 0 Left 0
SYMATTR InstName I1
SYMATTR Value 5m
SYMBOL OpAmps\\UniversalOpAmp1 432 160 R0
SYMATTR InstName U1
SYMBOL res 352 80 R90
WINDOW 0 0 56 VBottom 2
WINDOW 3 32 56 VTop 2
SYMATTR InstName R1
SYMBOL res 352 224 R90
WINDOW 0 0 56 VBottom 2
WINDOW 3 32 56 VTop 2
SYMATTR InstName R3
SYMBOL res 512 16 R90
WINDOW 0 0 56 VBottom 2
WINDOW 3 32 56 VTop 2
SYMATTR InstName R2
SYMBOL res 384 368 R180
WINDOW 0 36 76 Left 2
WINDOW 3 36 40 Left 2
SYMATTR InstName R4
SYMBOL voltage -160 480 R0
WINDOW 123 0 0 Left 0
WINDOW 39 0 0 Left 0
SYMATTR InstName VA
SYMATTR Value 3.3
SYMBOL voltage -240 592 R180
WINDOW 0 24 96 Left 2
WINDOW 3 24 16 Left 2
WINDOW 123 0 0 Left 0
WINDOW 39 0 0 Left 0
SYMATTR InstName VA-
SYMATTR Value 3.3
TEXT -120 -72 Left 1 ;Die Spannung an Rmess kann am Kleinsten -62.5mV sein.
TEXT -112 -48 Left 1 ;62.5/5=12.5 Ohm
