Version 4
SHEET 1 880 1268
WIRE 448 -208 -144 -208
WIRE -96 -144 -96 -160
WIRE 112 -112 80 -112
WIRE 208 -112 176 -112
WIRE -96 -48 -96 -64
WIRE -32 -48 -96 -48
WIRE -224 -32 -448 -32
WIRE -96 -32 -96 -48
WIRE -32 -16 -32 -48
WIRE 80 -16 80 -112
WIRE 80 -16 48 -16
WIRE 112 -16 80 -16
WIRE 208 -16 208 -112
WIRE 208 -16 192 -16
WIRE -96 80 -96 48
WIRE 128 80 128 64
WIRE 80 96 80 -16
WIRE 96 96 80 96
WIRE 208 112 208 -16
WIRE 208 112 160 112
WIRE 320 112 208 112
WIRE -416 128 -736 128
WIRE -304 128 -336 128
WIRE -192 128 -304 128
WIRE -16 128 -192 128
WIRE 96 128 -16 128
WIRE -736 144 -736 128
WIRE 128 160 128 144
WIRE -16 176 -16 128
WIRE 128 176 128 160
WIRE 320 176 320 112
WIRE -304 208 -304 128
WIRE -736 256 -736 224
WIRE -16 288 -16 256
WIRE 320 304 320 256
WIRE -1232 320 -1232 288
WIRE -1152 320 -1152 288
WIRE -304 320 -304 272
WIRE -144 352 -144 -208
WIRE 448 352 448 -208
WIRE 448 352 -144 352
WIRE -1232 432 -1232 400
WIRE -1152 432 -1152 400
WIRE -448 432 -448 -32
WIRE -224 432 -224 -32
WIRE -224 432 -448 432
WIRE 496 656 -96 656
WIRE 160 720 128 720
WIRE 256 720 224 720
WIRE -176 800 -400 800
WIRE 16 816 -32 816
WIRE 128 816 128 720
WIRE 128 816 96 816
WIRE 160 816 128 816
WIRE 256 816 256 720
WIRE 256 816 240 816
WIRE -32 832 -32 816
WIRE 176 912 176 896
WIRE 128 928 128 816
WIRE 144 928 128 928
WIRE 256 944 256 816
WIRE 256 944 208 944
WIRE 368 944 256 944
WIRE -368 960 -688 960
WIRE -256 960 -288 960
WIRE -144 960 -256 960
WIRE 16 960 -144 960
WIRE 144 960 16 960
WIRE -688 976 -688 960
WIRE 176 992 176 976
WIRE 176 1008 176 992
WIRE 368 1008 368 944
WIRE 16 1024 16 960
WIRE -256 1040 -256 960
WIRE -688 1088 -688 1056
WIRE 16 1136 16 1104
WIRE 368 1136 368 1088
WIRE -256 1152 -256 1104
WIRE -96 1184 -96 656
WIRE 496 1184 496 656
WIRE 496 1184 -96 1184
WIRE -400 1264 -400 800
WIRE -176 1264 -176 800
WIRE -176 1264 -400 1264
FLAG -304 320 0
FLAG 320 304 0
FLAG 128 64 VA
FLAG 128 160 VA-
FLAG -96 80 0
FLAG 320 112 IN_Ard
FLAG -736 256 0
FLAG -1152 432 0
FLAG -1152 288 VA
FLAG -1232 432 0
FLAG -1232 288 VA-
FLAG -96 -160 VA
FLAG -192 128 nach_pro_f
FLAG -688 1088 0
FLAG -256 1152 0
FLAG 368 1136 0
FLAG 176 896 VA
FLAG 176 992 VA-
FLAG -32 832 0
FLAG 368 944 IN_Ard2
FLAG 16 1136 0
FLAG -144 960 nach_pro_f2
FLAG -16 288 0
SYMBOL res -320 112 R90
WINDOW 0 0 56 VBottom 2
WINDOW 3 32 56 VTop 2
SYMATTR InstName R1
SYMATTR Value 1k
SYMBOL cap -320 208 R0
SYMATTR InstName C1
SYMATTR Value 10n
SYMBOL res 304 160 R0
SYMATTR InstName R2
SYMATTR Value 10Meg
SYMBOL OpAmps\\UniversalOpAmp1 128 112 R0
SYMATTR InstName U1
SYMBOL res 208 -32 R90
WINDOW 0 0 56 VBottom 2
WINDOW 3 32 56 VTop 2
SYMATTR InstName R3
SYMATTR Value 2.5k
SYMBOL res 64 -32 R90
WINDOW 0 0 56 VBottom 2
WINDOW 3 32 56 VTop 2
SYMATTR InstName R4
SYMATTR Value 1k
SYMBOL cap 176 -128 R90
WINDOW 0 0 32 VBottom 2
WINDOW 3 32 32 VTop 2
SYMATTR InstName C2
SYMATTR Value 7n
SYMBOL voltage -736 128 R0
WINDOW 3 -216 98 Left 2
WINDOW 123 0 0 Left 0
WINDOW 39 0 0 Left 0
SYMATTR Value PULSE(0 3.3 0 0 0 {t_on_10} {1/fclk})
SYMATTR InstName V1
SYMBOL voltage -1152 304 R0
WINDOW 123 0 0 Left 0
WINDOW 39 0 0 Left 0
SYMATTR InstName VA1
SYMATTR Value 3.3
SYMBOL voltage -1232 416 R180
WINDOW 0 24 96 Left 2
WINDOW 3 24 16 Left 2
WINDOW 123 0 0 Left 0
WINDOW 39 0 0 Left 0
SYMATTR InstName VA2
SYMATTR Value 3.3
SYMBOL res -112 -48 R0
SYMATTR InstName R6
SYMATTR Value 121
SYMBOL res -112 -160 R0
SYMATTR InstName R7
SYMATTR Value 1k
SYMBOL voltage -688 960 R0
WINDOW 3 -216 98 Left 2
WINDOW 123 0 0 Left 0
WINDOW 39 0 0 Left 0
SYMATTR Value PULSE(0 3.3 0 0 0 {t_on_10} {1/fclk})
SYMATTR InstName V2
SYMBOL res -272 944 R90
WINDOW 0 0 56 VBottom 2
WINDOW 3 32 56 VTop 2
SYMATTR InstName R5
SYMATTR Value 1k
SYMBOL cap -272 1040 R0
SYMATTR InstName C3
SYMATTR Value 1n
SYMBOL res 352 992 R0
SYMATTR InstName R8
SYMATTR Value 10Meg
SYMBOL OpAmps\\UniversalOpAmp1 176 944 R0
SYMATTR InstName U2
SYMBOL res 256 800 R90
WINDOW 0 0 56 VBottom 2
WINDOW 3 32 56 VTop 2
SYMATTR InstName R9
SYMATTR Value 150
SYMBOL res 112 800 R90
WINDOW 0 0 56 VBottom 2
WINDOW 3 32 56 VTop 2
SYMATTR InstName R10
SYMATTR Value 1k
SYMBOL cap 224 704 R90
WINDOW 0 0 32 VBottom 2
WINDOW 3 32 32 VTop 2
SYMATTR InstName C4
SYMATTR Value 7n
SYMBOL res 0 1008 R0
SYMATTR InstName R11
SYMATTR Value 1Meg
SYMBOL res -32 160 R0
SYMATTR InstName R12
SYMATTR Value 2.5k
TEXT -440 -56 Left 2 ;Pre-Filter
TEXT -136 -264 Left 2 ;Pro-Filter and Amplifier
TEXT -1384 -608 Left 2 ;.tran 0 {10/fclk} 0 {1/(fclk*10)}
TEXT -1384 -648 Left 2 !.param t_on_max=1/fclk-10e-9 t_on_50=t_on_max*0.5 t_on_10=t_on_max*0.1
TEXT -1384 -680 Left 2 !.param fclk=10Meg
TEXT -1392 -568 Left 2 !.tran 0 {5100/fclk} {5000/fclk} {1/(100*fclk)}
TEXT -392 776 Left 2 ;Pre-Filter
TEXT -88 624 Left 2 ;Pro-Filter and Amplifier
