Version 4
SHEET 1 2248 724
WIRE 1888 -128 1856 -128
WIRE 1984 -128 1952 -128
WIRE 288 -32 176 -32
WIRE 1744 -32 1696 -32
WIRE 1856 -32 1856 -128
WIRE 1856 -32 1824 -32
WIRE 1888 -32 1856 -32
WIRE 1984 -32 1984 -128
WIRE 1984 -32 1968 -32
WIRE 1696 -16 1696 -32
WIRE 512 32 480 32
WIRE 608 32 592 32
WIRE 1312 48 1312 16
WIRE 1344 48 1344 16
WIRE -112 64 -272 64
WIRE 64 64 -32 64
WIRE 240 64 240 48
WIRE 1904 64 1904 48
WIRE 176 80 176 -32
WIRE 208 80 176 80
WIRE 1280 80 1264 80
WIRE 1568 80 1568 64
WIRE 1856 80 1856 -32
WIRE 1872 80 1856 80
WIRE 64 96 64 64
WIRE 112 96 64 96
WIRE 288 96 288 -32
WIRE 288 96 272 96
WIRE 320 96 288 96
WIRE 352 96 320 96
WIRE 448 96 432 96
WIRE 944 96 944 80
WIRE 1536 96 1520 96
WIRE 1984 96 1984 -32
WIRE 1984 96 1936 96
WIRE 2096 96 1984 96
WIRE -272 112 -272 64
WIRE 112 112 112 96
WIRE 208 112 112 112
WIRE 912 112 864 112
WIRE 1648 112 1600 112
WIRE 1760 112 1728 112
WIRE 1872 112 1760 112
WIRE 64 128 64 96
WIRE 528 128 528 112
WIRE 1024 128 976 128
WIRE 1136 128 1104 128
WIRE 1280 128 1136 128
WIRE 1472 128 1472 16
WIRE 1472 128 1408 128
WIRE 1536 128 1472 128
WIRE 240 144 240 128
WIRE 448 144 448 96
WIRE 480 144 480 32
WIRE 480 144 448 144
WIRE 496 144 480 144
WIRE 608 144 608 32
WIRE 704 144 608 144
WIRE 912 144 704 144
WIRE 1904 144 1904 128
WIRE 240 160 240 144
WIRE 608 160 608 144
WIRE 608 160 560 160
WIRE 1136 160 1136 128
WIRE 1520 160 1520 96
WIRE 1904 160 1904 144
WIRE 2096 160 2096 96
WIRE 496 176 464 176
WIRE 1568 176 1568 144
WIRE 944 192 944 160
WIRE 1264 192 1264 80
WIRE 1312 192 1312 160
WIRE 1312 192 1264 192
WIRE 1344 192 1344 160
WIRE 1344 192 1312 192
WIRE 1760 192 1760 112
WIRE 528 208 528 192
WIRE 1312 208 1312 192
WIRE -272 224 -272 192
WIRE 528 224 528 208
WIRE 704 224 704 144
WIRE 64 240 64 208
WIRE 224 240 64 240
WIRE 336 240 224 240
WIRE 352 240 336 240
WIRE 464 240 464 176
WIRE 464 240 432 240
WIRE 1136 256 1136 224
WIRE 464 272 464 240
WIRE 224 288 224 240
WIRE 2096 288 2096 240
WIRE 864 304 864 112
WIRE 1472 304 1472 128
WIRE 1472 304 864 304
WIRE 1760 304 1760 256
WIRE 704 352 704 304
WIRE 464 384 464 352
WIRE -240 496 -240 464
WIRE -160 496 -160 464
WIRE -16 512 -16 480
WIRE -240 608 -240 576
WIRE -160 608 -160 576
WIRE -16 608 -16 592
FLAG 64 64 AIN
FLAG 64 240 AIP_GND
FLAG 464 384 0
FLAG -160 608 0
FLAG -160 464 VA
FLAG 528 112 VA
FLAG -240 608 0
FLAG -240 464 VA-
FLAG 528 208 VA-
FLAG 608 160 Vout
FLAG 336 240 V2
FLAG 320 96 V1
FLAG 704 352 0
FLAG -272 224 0
FLAG 240 48 VA
FLAG 240 144 VA-
FLAG -16 608 0
FLAG -16 480 Clk
FLAG 944 80 VA
FLAG 1136 256 0
FLAG 944 192 VA-
FLAG 1312 208 0
FLAG 1312 16 VA
FLAG 1344 16 Clk
FLAG 224 288 0
FLAG 1760 304 0
FLAG 1568 64 VA
FLAG 1568 176 VA-
FLAG 1520 160 0
FLAG 2096 288 0
FLAG 1904 48 VA
FLAG 1904 144 VA-
FLAG 1696 -16 0
FLAG 1472 16 OUT_Si894x
FLAG 2096 96 IN_Ard
SYMBOL res 48 112 R0
SYMATTR InstName Rmess
SYMATTR Value 12.5
SYMBOL current -32 64 R90
WINDOW 0 -32 40 VBottom 2
WINDOW 3 -89 44 VTop 2
WINDOW 123 0 0 Left 0
WINDOW 39 0 0 Left 0
SYMATTR InstName I1
SYMATTR Value SINE(2.5m 2.5m {fclk/1000})
SYMBOL OpAmps\\UniversalOpAmp1 528 160 R0
SYMATTR InstName U1
SYMBOL res 448 80 R90
WINDOW 0 0 56 VBottom 2
WINDOW 3 32 56 VTop 2
SYMATTR InstName R1
SYMATTR Value 1k
SYMBOL res 448 224 R90
WINDOW 0 0 56 VBottom 2
WINDOW 3 32 56 VTop 2
SYMATTR InstName R1_
SYMATTR Value 1k
SYMBOL res 608 16 R90
WINDOW 0 0 56 VBottom 2
WINDOW 3 32 56 VTop 2
SYMATTR InstName R2_
SYMATTR Value 40k
SYMBOL res 480 368 R180
WINDOW 0 36 76 Left 2
WINDOW 3 36 40 Left 2
SYMATTR InstName R2
SYMATTR Value 40k
SYMBOL voltage -160 480 R0
WINDOW 123 0 0 Left 0
WINDOW 39 0 0 Left 0
SYMATTR InstName VA
SYMATTR Value 3.3
SYMBOL voltage -240 592 R180
WINDOW 0 24 96 Left 2
WINDOW 3 24 16 Left 2
WINDOW 123 0 0 Left 0
WINDOW 39 0 0 Left 0
SYMATTR InstName VA-
SYMATTR Value 3.3
SYMBOL res 688 208 R0
SYMATTR InstName R3
SYMATTR Value 2Meg
SYMBOL voltage -272 96 R0
WINDOW 123 0 0 Left 0
WINDOW 39 0 0 Left 0
SYMATTR InstName V1
SYMATTR Value 3.3V
SYMBOL OpAmps\\UniversalOpAmp1 240 96 R0
SYMATTR InstName U2
SYMBOL voltage -16 496 R0
WINDOW 123 0 0 Left 0
WINDOW 39 0 0 Left 0
SYMATTR InstName Clock
SYMATTR Value PULSE(0 3.3 0 0 0 {1/(2*fclk)} {1/fclk})
SYMBOL OpAmps\\UniversalOpAmp1 944 128 R0
SYMATTR InstName U3
SYMATTR Value2 Avol=1 GBW=100Meg Vos=0
SYMBOL res 1008 144 R270
WINDOW 0 32 56 VTop 2
WINDOW 3 0 56 VBottom 2
SYMATTR InstName R4
SYMATTR Value 10
SYMBOL cap 1120 160 R0
SYMATTR InstName C1
SYMATTR Value 10n
SYMBOL Comparators\\AD8561 1312 32 R0
SYMATTR InstName U5
SYMBOL res 1744 96 R90
WINDOW 0 0 56 VBottom 2
WINDOW 3 32 56 VTop 2
SYMATTR InstName R6
SYMATTR Value 1k
SYMBOL OpAmps\\UniversalOpAmp1 1568 112 R0
SYMATTR InstName U6
SYMATTR Value2 Avol=1.27 GBW=100Meg Vos=0
SYMBOL cap 1744 192 R0
SYMATTR InstName C2
SYMATTR Value 5n
SYMBOL res 2080 144 R0
SYMATTR InstName R5
SYMATTR Value 10Meg
SYMBOL OpAmps\\UniversalOpAmp1 1904 96 R0
SYMATTR InstName U4
SYMBOL res 1984 -48 R90
WINDOW 0 0 56 VBottom 2
WINDOW 3 32 56 VTop 2
SYMATTR InstName R7
SYMATTR Value 270
SYMBOL res 1840 -48 R90
WINDOW 0 0 56 VBottom 2
WINDOW 3 32 56 VTop 2
SYMATTR InstName R8
SYMATTR Value 1k
SYMBOL cap 1952 -144 R90
WINDOW 0 0 32 VBottom 2
WINDOW 3 32 32 VTop 2
SYMATTR InstName C3
SYMATTR Value 1.85n
TEXT -152 -296 Left 2 ;Die Spannung an Rmess kann am Kleinsten -62.5mV sein.
TEXT -152 -264 Left 2 ;62.5/5=12.5 Ohm
TEXT -304 672 Left 2 !.tran 0 {7000/fclk} {5000/fclk} {1/(100*fclk)}
TEXT -304 704 Left 2 !.param fclk 30Meg
TEXT 848 8 Left 2 ;Comparator
TEXT 1040 8 Left 2 ;Integrator
